obj01
  PyMOL3.1          3D                             0

 19 21  0  0  0  0  0  0  0  0999 V2000
  -29.4640   11.8130  -25.3530 C   0  0  0  0  0  0  0  0  0  0  0  0
  -29.2330   10.5700  -26.0220 O   0  0  0  0  0  0  0  0  0  0  0  0
  -29.7040   11.5740  -23.8670 C   0  0  0  0  0  0  0  0  0  0  0  0
  -30.6650   10.5270  -23.6910 O   0  0  0  0  0  0  0  0  0  0  0  0
  -28.4670   11.1510  -23.0840 C   0  0  0  0  0  0  0  0  0  0  0  0
  -27.7250   12.2450  -22.5260 O   0  0  0  0  0  0  0  0  0  0  0  0
  -29.0500   10.2980  -21.9850 C   0  0  0  0  0  0  0  0  0  0  0  0
  -29.3760   11.1150  -20.8570 O   0  0  0  0  0  0  0  0  0  0  0  0
  -30.3120    9.7000  -22.5840 C   0  0  0  0  0  0  0  0  0  0  0  0
  -29.9680    4.7450  -21.0190 N   0  0  0  0  0  0  0  0  0  0  0  0
  -30.2950    5.8540  -20.3270 C   0  0  0  0  0  0  0  0  0  0  0  0
  -30.3410    7.0790  -20.8840 N   0  0  0  0  0  0  0  0  0  0  0  0
  -30.0530    7.2540  -22.1940 C   0  0  0  0  0  0  0  0  0  0  0  0
  -29.6840    6.0870  -23.0110 C   0  0  0  0  0  0  0  0  0  0  0  0
  -29.6570    4.7730  -22.3340 C   0  0  0  0  0  0  0  0  0  0  0  0
  -29.3340    3.6420  -23.0080 N   0  0  0  0  0  0  0  0  0  0  0  0
  -29.4630    6.5420  -24.2560 N   0  0  0  0  0  0  0  0  0  0  0  0
  -29.6630    7.8860  -24.2420 C   0  0  0  0  0  0  0  0  0  0  0  0
  -30.0220    8.3070  -23.0090 N   0  0  0  0  0  0  0  0  0  0  0  0
  1  3  1  0  0  0  0
  1  2  1  0  0  0  0
  3  4  1  0  0  0  0
  3  5  1  0  0  0  0
  4  9  1  0  0  0  0
  5  6  1  0  0  0  0
  5  7  1  0  0  0  0
  7  8  1  0  0  0  0
  7  9  1  0  0  0  0
  9 19  1  0  0  0  0
 10 11  4  0  0  0  0
 11 12  4  0  0  0  0
 12 13  4  0  0  0  0
 13 14  4  0  0  0  0
 14 15  4  0  0  0  0
 10 15  4  0  0  0  0
 15 16  1  0  0  0  0
 14 17  4  0  0  0  0
 17 18  4  0  0  0  0
 13 19  4  0  0  0  0
 18 19  4  0  0  0  0
M  END
$$$$
