obj01
  PyMOL3.1          3D                             0

 24 26  0  0  0  0  0  0  0  0999 V2000
   -1.4040    7.1890  -21.2760 C   0  0  0  0  0  0  0  0  0  0  0  0
   -0.8650    7.4020  -22.5700 C   0  0  0  0  0  0  0  0  0  0  0  0
   -1.3860    8.4220  -23.4020 C   0  0  0  0  0  0  0  0  0  0  0  0
   -2.4250    9.2900  -22.9770 C   0  0  0  0  0  0  0  0  0  0  0  0
   -2.9090    9.1110  -21.7050 C   0  0  0  0  0  0  0  0  0  0  0  0
   -2.4270    8.0900  -20.8970 C   0  0  0  0  0  0  0  0  0  0  0  0
   -3.2160    7.9180  -19.2530 S   0  0  0  0  0  0  0  0  0  0  0  0
   -2.9990    9.4410  -18.3220 N   0  0  0  0  0  0  0  0  0  0  0  0
   -3.9370   10.4660  -18.6150 N   0  0  0  0  0  0  0  0  0  0  0  0
   -5.1130   10.6220  -17.8550 C   0  0  0  0  0  0  0  0  0  0  0  0
   -5.8910   11.7560  -18.2650 C   0  0  0  0  0  0  0  0  0  0  0  0
   -6.8680   13.2320  -20.1140 C   0  0  0  0  0  0  0  0  0  0  0  0
   -6.1240   12.1400  -19.6650 C   0  0  0  0  0  0  0  0  0  0  0  0
   -6.4900   12.5650  -17.2720 C   0  0  0  0  0  0  0  0  0  0  0  0
   -7.2420   13.6700  -17.7290 C   0  0  0  0  0  0  0  0  0  0  0  0
   -7.4370   14.0240  -19.1190 C   0  0  0  0  0  0  0  0  0  0  0  0
   -4.5920    7.5870  -19.6210 O   0  0  0  0  0  0  0  0  0  0  0  0
   -2.4900    6.8440  -18.5480 O   0  0  0  0  0  0  0  0  0  0  0  0
   -5.3990    9.8300  -16.9180 O   0  0  0  0  0  0  0  0  0  0  0  0
    0.1110    6.4990  -23.0140 C   0  0  0  0  0  0  0  0  0  0  0  0
    0.6690    6.7070  -24.2800 C   0  0  0  0  0  0  0  0  0  0  0  0
    0.1660    7.7050  -25.0980 C   0  0  0  0  0  0  0  0  0  0  0  0
   -0.8800    8.5860  -24.7100 C   0  0  0  0  0  0  0  0  0  0  0  0
   -5.6080   11.3750  -20.6940 F   0  0  0  0  0  0  0  0  0  0  0  0
  1  2  4  0  0  0  0
  2  3  4  0  0  0  0
  3  4  4  0  0  0  0
  4  5  4  0  0  0  0
  1  6  4  0  0  0  0
  5  6  4  0  0  0  0
  6  7  1  0  0  0  0
  7 17  2  0  0  0  0
  7 18  2  0  0  0  0
  7  8  1  0  0  0  0
  8  9  1  0  0  0  0
  9 10  1  0  0  0  0
 10 11  1  0  0  0  0
 10 19  2  0  0  0  0
 11 13  4  0  0  0  0
 11 14  4  0  0  0  0
 12 13  4  0  0  0  0
 12 16  4  0  0  0  0
 13 24  1  0  0  0  0
 14 15  4  0  0  0  0
 15 16  4  0  0  0  0
  2 20  4  0  0  0  0
 20 21  4  0  0  0  0
 21 22  4  0  0  0  0
 22 23  4  0  0  0  0
  3 23  4  0  0  0  0
M  END
$$$$
